/*--------------------------------*- C++ -*----------------------------------*\
| =========                 |                                                 |
| \\      /  F ield         | OpenFOAM: The Open Source CFD Toolbox           |
|  \\    /   O peration     | Version:  dev                                   |
|   \\  /    A nd           | Website:  www.openfoam.com                      |
|    \\/     M anipulation  |                                                 |
\*---------------------------------------------------------------------------*/
FoamFile
{
    version     2.0;
    format      ascii;
    class       volScalarField;
    object      epsilon;
}
// * * * * * * * * * * * * * * * * * * * * * * * * * * * * * * * * * * * * * //

dimensions      [0 2 -3 0 0 0 0];

internalField   uniform 1e-3;

boundaryField
{
    bottom
    {
        type            zeroGradient;
        value           $internalField;
    }

    top
    {
        type            zeroGradient;
        value           $internalField;
    }

    left
    {
        type            zeroGradient;
        value           $internalField;
    }

    right
    {
        type            zeroGradient;
        value           $internalField;
    }

    defaultFaces
    {
	 type            empty;
    }
}

// ************************************************************************* //
