/*--------------------------------*- C++ -*----------------------------------*\
| =========                 |                                                 |
| \\      /  F ield         | OpenFOAM: The Open Source CFD Toolbox           |
|  \\    /   O peration     | Version:  dev                                   |
|   \\  /    A nd           | Website:  www.openfoam.com                      |
|    \\/     M anipulation  |                                                 |
\*---------------------------------------------------------------------------*/
FoamFile
{
    version     2.0;
    format      ascii;
    class       dictionary;
    location    "system";
    object      setFieldsDict;
}
// * * * * * * * * * * * * * * * * * * * * * * * * * * * * * * * * * * * * * //

defaultFieldValues
(
	    volScalarFieldValue T 466.8
);

high 1e5;
low -1e5;

regions
(
    boxToCell
    {
        box ($low $low $low) ($high $high 5.e-3);
        fieldValues
        (
	    volScalarFieldValue T  1867.2
        );
    }
);


// ************************************************************************* //
